test/TEST190523/v_h12.csv
Bus, BasekV, Node1, Magnitude1, Angle1, pu1, Node2, Magnitude2, Angle2, pu2, Node3, Magnitude3, Angle3, pu3
"SOURCEBUS", 69, 1,    41805.3,   -0.1,    1.0494, 2,    41825.9, -120.1,    1.0499, 3,      41786,  119.9,    1.0489
"BUSMVMAI1", 12.8, 1,    7747.62,  -30.3,    1.0484, 2,    7754.83, -150.1,    1.0494, 3,    7740.67,   89.5,    1.0474
"BUSMVMAI136", 12.505, 1,    7747.64,  -30.3,    1.0731, 2,    7754.81, -150.1,    1.0741, 3,    7740.58,   89.5,    1.0721
"BUSMVMAI3", 12.505, 1,    7766.31,  -30.6,    1.0757, 2,    7742.08, -149.9,    1.0723, 3,    7669.37,   89.0,    1.0622
"BUSMVMAI2", 12.505, 1,    7766.36,  -30.6,    1.0757, 2,    7742.04, -149.9,    1.0723, 3,    7669.18,   89.0,    1.0622
"BUSMVMAI4", 12.505, 1,     7766.9,  -30.6,    1.0757, 2,    7741.68, -149.8,    1.0723, 3,    7667.17,   88.9,    1.0619
"BUSMVMAI46", 12.505, 1,    7766.29,  -30.6,    1.0757, 2,    7742.09, -149.9,    1.0723, 3,    7669.46,   89.0,    1.0623
"BUSMVMAI5", 12.505, 1,    7767.14,  -30.6,    1.0758, 2,    7741.11, -149.8,    1.0722, 3,    7665.06,   88.9,    1.0616
"BUSMVMAI862", 12.505, 1,    7766.89,  -30.6,    1.0757, 0, 0, 0, 0, 0, 0, 0, 0
"BUSMVMAI6", 12.505, 1,    7767.17,  -30.6,    1.0758, 2,       7741, -149.8,    1.0722, 3,    7664.68,   88.9,    1.0616
"BUSMVMAI859", 12.505, 3,    7665.02,   88.9,    1.0616, 0, 0, 0, 0, 0, 0, 0, 0
"BUSMVMAI860", 12.505, 3,    7665.06,   88.9,    1.0616, 0, 0, 0, 0, 0, 0, 0, 0
"BUSMVMAI7", 12.505, 1,    7767.07,  -30.6,    1.0758, 2,    7740.66, -149.8,    1.0721, 3,    7663.35,   88.9,    1.0614
"BUSMVMAI8", 12.505, 1,    7768.15,  -30.6,    1.0759, 2,    7739.81, -149.8,     1.072, 3,    7661.79,   88.9,    1.0612
"BUSMVMAI9", 12.505, 1,    7767.07,  -30.6,    1.0758, 2,    7740.66, -149.8,    1.0721, 3,    7663.35,   88.9,    1.0614
"BUSMVMAI10", 12.505, 1,     7766.6,  -30.6,    1.0757, 2,    7740.69, -149.8,    1.0721, 3,    7662.99,   88.9,    1.0614
"BUSMVMAI56", 12.505, 1,    7766.84,  -30.6,    1.0757, 2,    7740.68, -149.8,    1.0721, 3,    7663.17,   88.9,    1.0614
"BUSMVMAI861", 12.505, 3,    7664.93,   88.9,    1.0616, 0, 0, 0, 0, 0, 0, 0, 0
"BUSMVMAI12", 12.505, 1,    7769.02,  -30.6,     1.076, 2,    7739.12, -149.8,    1.0719, 3,    7660.51,   88.9,     1.061
"BUSMVMAI51", 12.505, 1,    7768.15,  -30.6,    1.0759, 2,    7739.81, -149.8,     1.072, 3,    7661.79,   88.9,    1.0612
"BUSMVMAI2171", 12.505, 1,    7768.15,  -30.6,    1.0759, 0, 0, 0, 0, 0, 0, 0, 0
"BUSMVMAI863", 12.505, 3,    7664.86,   88.9,    1.0616, 0, 0, 0, 0, 0, 0, 0, 0
"BUSMVMAI2165", 12.505, 3,    7663.35,   88.9,    1.0614, 0, 0, 0, 0, 0, 0, 0, 0
"BUSMVMAI694", 12.505, 1,    7767.07,  -30.6,    1.0758, 2,    7740.66, -149.8,    1.0721, 3,    7663.35,   88.9,    1.0614
"BUSMVMAI122", 12.505, 1,    7766.57,  -30.6,    1.0757, 2,    7740.69, -149.8,    1.0721, 3,    7662.97,   88.9,    1.0614
"BUSMVMAI11", 12.505, 1,    7769.02,  -30.6,     1.076, 2,    7739.11, -149.8,    1.0719, 3,    7660.52,   88.9,     1.061
"BUSMVMAI13", 12.505, 1,    7769.01,  -30.6,     1.076, 2,    7739.09, -149.8,    1.0719, 3,    7660.54,   88.9,     1.061
"BUSMVMAI18", 12.505, 1,    7769.37,  -30.6,    1.0761, 2,    7738.88, -149.8,    1.0719, 3,    7660.01,   88.9,    1.0609
"BUSMVMAI14", 12.505, 1,    7768.98,  -30.6,     1.076, 2,    7739.05, -149.8,    1.0719, 3,     7660.6,   88.9,     1.061
"BUSMVMAI15", 12.505, 1,    7768.95,  -30.6,     1.076, 2,       7739, -149.8,    1.0719, 3,    7660.66,   88.9,     1.061
"BUSMVMAI16", 12.505, 1,    7768.93,  -30.6,     1.076, 2,    7739.02, -149.8,    1.0719, 3,    7660.69,   88.9,     1.061
"BUSMVMAI2166", 12.505, 2,       7739, -149.8,    1.0719, 0, 0, 0, 0, 0, 0, 0, 0
"BUSMVMAI2172", 12.505, 1,    7766.89,  -30.6,    1.0757, 0, 0, 0, 0, 0, 0, 0, 0
"BUSMVMAI864", 12.505, 3,     7664.8,   88.9,    1.0616, 0, 0, 0, 0, 0, 0, 0, 0
"BUSMVMAI865", 12.505, 3,    7664.72,   88.9,    1.0616, 0, 0, 0, 0, 0, 0, 0, 0
"BUSMVMAI17", 12.505, 1,    7768.93,  -30.6,     1.076, 2,    7739.02, -149.8,    1.0719, 3,    7660.69,   88.9,     1.061
"BUSMVMAI695", 12.505, 1,    7768.93,  -30.6,     1.076, 2,    7739.02, -149.8,    1.0719, 3,     7660.7,   88.9,     1.061
"BUSMVMAI866", 12.505, 3,    7664.72,   88.9,    1.0616, 0, 0, 0, 0, 0, 0, 0, 0
"BUSMVMAI2176", 12.505, 3,    7664.72,   88.9,    1.0616, 0, 0, 0, 0, 0, 0, 0, 0
"BUSMVMAI2177", 12.505, 3,    7664.71,   88.9,    1.0616, 0, 0, 0, 0, 0, 0, 0, 0
"BUSMVMAI2178", 12.505, 3,    7664.65,   88.9,    1.0616, 0, 0, 0, 0, 0, 0, 0, 0
"BUSMVMAI19", 12.505, 1,       7770,  -30.6,    1.0762, 2,    7738.43, -149.8,    1.0718, 3,    7659.12,   88.9,    1.0608
"BUSMVMAI20", 12.505, 1,    7770.88,  -30.6,    1.0763, 2,    7737.79, -149.8,    1.0717, 3,    7657.86,   88.9,    1.0606
"BUSMVMAI53", 12.505, 1,       7770,  -30.6,    1.0762, 2,    7738.43, -149.8,    1.0718, 3,    7659.12,   88.9,    1.0608
"BUSMVMAI21", 12.505, 1,    7771.82,  -30.6,    1.0764, 2,    7737.13, -149.8,    1.0716, 3,    7656.54,   88.9,    1.0605
"BUSMVMAI22", 12.505, 1,    7772.91,  -30.6,    1.0766, 2,    7736.35, -149.8,    1.0715, 3,       7655,   88.9,    1.0602
"BUSMVMAI23", 12.505, 1,    7771.82,  -30.6,    1.0764, 2,    7737.13, -149.8,    1.0716, 3,    7656.54,   88.9,    1.0605
"BUSMVMAI25", 12.505, 1,    7774.08,  -30.6,    1.0767, 2,     7735.5, -149.8,    1.0714, 3,    7653.39,   88.8,      1.06
"BUSMVMAI52", 12.505, 1,    7772.91,  -30.6,    1.0766, 2,    7736.35, -149.8,    1.0715, 3,       7655,   88.9,    1.0602
"BUSMVMAI54", 12.505, 1,    7772.91,  -30.6,    1.0766, 2,    7736.35, -149.8,    1.0715, 3,       7655,   88.9,    1.0602
"BUSMVMAI55", 12.505, 1,    7772.91,  -30.6,    1.0766, 2,    7736.35, -149.8,    1.0715, 3,       7655,   88.9,    1.0602
"BUSMVMAI696", 12.505, 1,    7771.82,  -30.6,    1.0764, 2,    7737.13, -149.8,    1.0716, 3,    7656.53,   88.9,    1.0605
"BUSMVMAI24", 12.505, 1,    7774.19,  -30.6,    1.0768, 2,    7735.42, -149.8,    1.0714, 3,    7653.24,   88.8,      1.06
"BUSMVMAI26", 12.505, 1,    7775.36,  -30.6,    1.0769, 2,    7734.57, -149.8,    1.0713, 3,    7651.63,   88.8,    1.0598
"BUSMVMAI49", 12.505, 1,    7774.08,  -30.6,    1.0767, 2,     7735.5, -149.8,    1.0714, 3,    7653.39,   88.8,      1.06
"BUSMVMAI50", 12.505, 1,    7774.08,  -30.6,    1.0767, 2,     7735.5, -149.8,    1.0714, 3,    7653.39,   88.8,      1.06
"BUSMVMAI27", 12.505, 1,    7775.33,  -30.6,    1.0769, 2,    7734.59, -149.8,    1.0713, 3,    7651.62,   88.8,    1.0598
"BUSMVMAI28", 12.505, 1,    7776.27,  -30.6,     1.077, 2,    7733.91, -149.8,    1.0712, 3,    7650.42,   88.8,    1.0596
"BUSMVMAI29", 12.505, 1,    7775.31,  -30.6,    1.0769, 2,     7734.6, -149.8,    1.0713, 3,    7651.61,   88.8,    1.0598
"BUSMVMAI31", 12.505, 1,    7777.32,  -30.6,    1.0772, 2,    7733.14, -149.7,    1.0711, 3,    7649.01,   88.8,    1.0594
"BUSMVMAI30", 12.505, 1,    7775.27,  -30.6,    1.0769, 2,    7734.63, -149.8,    1.0713, 3,    7651.59,   88.8,    1.0598
"BUSMVMAI34", 12.505, 1,    7775.23,  -30.6,    1.0769, 2,    7734.65, -149.8,    1.0713, 3,    7651.58,   88.8,    1.0598
"BUSMVMAI867", 12.505, 1,    7777.27,  -30.6,    1.0772, 0, 0, 0, 0, 0, 0, 0, 0
"BUSMVMAI43", 12.505, 1,    7777.35,  -30.6,    1.0772, 2,    7733.12, -149.7,    1.0711, 3,    7648.98,   88.8,    1.0594
"BUSMVMAI871", 12.505, 2,    7733.14, -149.7,    1.0711, 0, 0, 0, 0, 0, 0, 0, 0
"BUSMVMAI33", 12.505, 1,    7777.66,  -30.6,    1.0772, 2,    7732.89, -149.7,     1.071, 3,    7648.58,   88.8,    1.0594
"BUSMVMAI32", 12.505, 1,    7778.58,  -30.6,    1.0774, 2,    7732.21, -149.7,    1.0709, 3,    7647.41,   88.8,    1.0592
"BUSMVMAI37", 12.505, 1,     7779.8,  -30.6,    1.0775, 2,     7731.3, -149.7,    1.0708, 3,    7645.84,   88.8,     1.059
"BUSMVMAI44", 12.505, 1,    7777.37,  -30.6,    1.0772, 2,     7733.1, -149.7,    1.0711, 3,    7648.94,   88.8,    1.0594
"BUSMVMAI35", 12.505, 1,    7775.24,  -30.6,    1.0769, 2,    7734.65, -149.8,    1.0713, 3,    7651.57,   88.8,    1.0598
"BUSMVMAI36", 12.505, 1,    7775.24,  -30.6,    1.0769, 2,    7734.65, -149.8,    1.0713, 3,    7651.57,   88.8,    1.0598
"BUSMVMAI869", 12.505, 1,    7777.27,  -30.6,    1.0772, 0, 0, 0, 0, 0, 0, 0, 0
"BUSMVMAI38", 12.505, 1,    7780.78,  -30.6,    1.0777, 2,    7730.57, -149.7,    1.0707, 3,     7644.6,   88.8,    1.0588
"BUSMVMAI2181", 12.505, 1,     7779.8,  -30.6,    1.0775, 0, 0, 0, 0, 0, 0, 0, 0
"BUSMVMAI868", 12.505, 1,    7777.18,  -30.6,    1.0772, 0, 0, 0, 0, 0, 0, 0, 0
"BUSMVMAI870", 12.505, 1,    7777.08,  -30.6,    1.0772, 0, 0, 0, 0, 0, 0, 0, 0
"BUSMVMAI39", 12.505, 1,    7780.81,  -30.6,    1.0777, 2,    7730.55, -149.7,    1.0707, 3,    7644.54,   88.7,    1.0588
"BUSMVMAI40", 12.505, 1,     7781.7,  -30.6,    1.0778, 2,    7729.88, -149.7,    1.0706, 3,    7643.42,   88.7,    1.0586
"BUSMVMAI697", 12.505, 1,    7780.84,  -30.6,    1.0777, 2,    7730.57, -149.7,    1.0707, 3,    7644.38,   88.7,    1.0588
"BUSMVMAI41", 12.505, 1,    7782.77,  -30.6,    1.0779, 2,     7729.1, -149.7,    1.0705, 3,    7642.04,   88.7,    1.0585
"BUSMVMAI42", 12.505, 1,     7782.8,  -30.6,     1.078, 2,    7729.08, -149.7,    1.0705, 3,       7642,   88.7,    1.0584
"BUSMVMAI48", 12.505, 1,    7783.64,  -30.6,    1.0781, 2,    7728.47, -149.7,    1.0704, 3,    7640.92,   88.7,    1.0583
"BUSMVMAI303", 12.505, 1,     7783.2,  -30.6,     1.078, 2,    7728.78, -149.7,    1.0705, 3,    7641.48,   88.7,    1.0584
"BUSMVMAI45", 12.505, 1,    7782.81,  -30.6,     1.078, 2,    7729.07, -149.7,    1.0705, 3,    7641.98,   88.7,    1.0584
"BUSMVMAI701", 12.505, 1,    7782.82,  -30.6,     1.078, 2,    7729.08, -149.7,    1.0705, 3,    7641.96,   88.7,    1.0584
"BUSMVMAI47", 12.505, 1,    7766.06,  -30.6,    1.0756, 2,    7742.25, -149.9,    1.0723, 3,    7670.34,   89.0,    1.0624
"BUSMVMAI179", 12.505, 1,    7766.17,  -30.6,    1.0756, 2,    7742.17, -149.9,    1.0723, 3,     7669.9,   89.0,    1.0623
"BUSMVMAI160", 12.505, 1,    7765.49,  -30.6,    1.0756, 2,    7742.63, -149.9,    1.0724, 3,    7672.46,   89.0,    1.0627
"BUSMVMAI1103", 12.505, 1,    7783.56,  -30.6,    1.0781, 0, 0, 0, 0, 0, 0, 0, 0
"BUSMVMAI259", 12.505, 1,    7784.11,  -30.6,    1.0781, 2,     7728.1, -149.7,    1.0704, 3,    7640.41,   88.7,    1.0582
"BUSMVMAI304", 12.505, 1,    7783.64,  -30.6,    1.0781, 2,    7728.47, -149.7,    1.0704, 3,    7640.92,   88.7,    1.0583
"BUSMVMAI702", 12.505, 1,    7774.08,  -30.6,    1.0767, 2,     7735.5, -149.8,    1.0714, 3,    7653.39,   88.8,      1.06
"BUSMVMAI58", 12.505, 1,    7766.27,  -30.6,    1.0757, 2,    7740.72, -149.8,    1.0721, 3,    7662.73,   88.9,    1.0613
"BUSMVMAI57", 12.505, 1,    7765.15,  -30.6,    1.0755, 2,    7740.79, -149.8,    1.0721, 3,    7661.87,   88.9,    1.0612
"BUSMVMAI60", 12.505, 1,    7764.68,  -30.6,    1.0754, 2,    7740.83, -149.8,    1.0721, 3,    7661.52,   88.9,    1.0612
"BUSMVMAI703", 12.505, 1,    7765.15,  -30.6,    1.0755, 2,     7740.8, -149.8,    1.0721, 3,    7661.86,   88.9,    1.0612
"BUSMVMAI123", 12.505, 1,    7766.55,  -30.6,    1.0757, 2,     7740.7, -149.8,    1.0721, 3,    7662.95,   88.9,    1.0614
"BUSMVMAI59", 12.505, 1,    7764.01,  -30.6,    1.0753, 2,     7740.9, -149.8,    1.0721, 3,    7661.16,   88.9,    1.0611
"BUSMVMAI61", 12.505, 1,    7762.88,  -30.7,    1.0752, 2,    7741.03, -149.8,    1.0722, 3,    7660.56,   88.9,     1.061
"BUSMVMAI63", 12.505, 1,    7764.72,  -30.6,    1.0754, 2,     7740.8, -149.8,    1.0721, 3,    7661.45,   88.9,    1.0611
"BUSMVMAI874", 12.505, 3,    7661.52,   88.9,    1.0612, 0, 0, 0, 0, 0, 0, 0, 0
"BUSMVMAI62", 12.505, 1,    7761.81,  -30.7,     1.075, 2,    7741.08, -149.8,    1.0722, 3,    7659.96,   88.9,    1.0609
"BUSMVMAI64", 12.505, 1,    7760.64,  -30.7,    1.0749, 2,    7741.18, -149.8,    1.0722, 3,    7659.54,   88.9,    1.0609
"BUSMVMAI942", 12.505, 3,    7659.96,   88.9,    1.0609, 0, 0, 0, 0, 0, 0, 0, 0
"BUSMVMAI873", 12.505, 3,    7659.95,   88.9,    1.0609, 0, 0, 0, 0, 0, 0, 0, 0
"BUSMVMAI872", 12.505, 3,    7659.69,   88.9,    1.0609, 0, 0, 0, 0, 0, 0, 0, 0
"BUSMVMAI880", 12.505, 3,    7659.68,   88.9,    1.0609, 0, 0, 0, 0, 0, 0, 0, 0
"BUSMVMAI945", 12.505, 3,    7661.44,   88.9,    1.0611, 0, 0, 0, 0, 0, 0, 0, 0
"BUSMVMAI65", 12.505, 1,    7759.41,  -30.7,    1.0747, 2,    7741.25, -149.8,    1.0722, 3,    7659.08,   88.9,    1.0608
"BUSMVMAI66", 12.505, 1,    7758.16,  -30.7,    1.0745, 2,    7741.32, -149.8,    1.0722, 3,     7658.6,   88.9,    1.0607
"BUSMVMAI67", 12.505, 1,    7756.82,  -30.7,    1.0744, 2,     7741.4, -149.8,    1.0722, 3,    7658.09,   88.9,    1.0607
"BUSMVMAI878", 12.505, 1,    7756.78,  -30.7,    1.0743, 0, 0, 0, 0, 0, 0, 0, 0
"BUSMVMAI68", 12.505, 1,    7755.81,  -30.7,    1.0742, 2,    7741.45, -149.8,    1.0722, 3,    7657.71,   88.9,    1.0606
"BUSMVMAI706", 12.505, 1,    7756.82,  -30.7,    1.0744, 2,     7741.4, -149.8,    1.0722, 3,    7658.09,   88.9,    1.0607
"BUSMVMAI876", 12.505, 3,    7661.43,   88.9,    1.0611, 0, 0, 0, 0, 0, 0, 0, 0
"BUSMVMAI875", 12.505, 3,    7661.19,   88.9,    1.0611, 0, 0, 0, 0, 0, 0, 0, 0
"BUSMVMAI877", 12.505, 3,    7661.11,   88.9,    1.0611, 0, 0, 0, 0, 0, 0, 0, 0
"BUSMVMAI883", 12.505, 3,     7660.9,   88.9,    1.0611, 0, 0, 0, 0, 0, 0, 0, 0
"BUSMVMAI884", 12.505, 3,     7661.1,   88.9,    1.0611, 0, 0, 0, 0, 0, 0, 0, 0
"BUSMVMAI886", 12.505, 3,    7661.11,   88.9,    1.0611, 0, 0, 0, 0, 0, 0, 0, 0
"BUSMVMAI885", 12.505, 1,     7756.7,  -30.7,    1.0743, 0, 0, 0, 0, 0, 0, 0, 0
"BUSMVMAI879", 12.505, 3,    7659.32,   88.9,    1.0608, 0, 0, 0, 0, 0, 0, 0, 0
"BUSMVMAI881", 12.505, 3,    7659.32,   88.9,    1.0608, 0, 0, 0, 0, 0, 0, 0, 0
"BUSMVMAI888", 12.505, 3,    7659.26,   88.9,    1.0608, 0, 0, 0, 0, 0, 0, 0, 0
"BUSMVMAI882", 12.505, 3,    7659.33,   88.9,    1.0608, 0, 0, 0, 0, 0, 0, 0, 0
"BUSMVMAI944", 12.505, 3,    7659.33,   88.9,    1.0608, 0, 0, 0, 0, 0, 0, 0, 0
"BUSMVMAI889", 12.505, 3,    7660.73,   88.9,     1.061, 0, 0, 0, 0, 0, 0, 0, 0
"BUSMVMAI2183", 12.505, 3,     7661.1,   88.9,    1.0611, 0, 0, 0, 0, 0, 0, 0, 0
"BUSMVMAI2184", 12.505, 3,     7661.1,   88.9,    1.0611, 0, 0, 0, 0, 0, 0, 0, 0
"BUSMVMAI71", 12.505, 1,    7754.86,  -30.7,    1.0741, 2,    7741.46, -149.8,    1.0722, 3,    7657.35,   88.9,    1.0606
"BUSMVMAI2182", 12.505, 1,    7756.69,  -30.7,    1.0743, 0, 0, 0, 0, 0, 0, 0, 0
"BUSMVMAI2185", 12.505, 1,    7756.71,  -30.7,    1.0743, 0, 0, 0, 0, 0, 0, 0, 0
"BUSMVMAI2186", 12.505, 1,    7756.62,  -30.7,    1.0743, 0, 0, 0, 0, 0, 0, 0, 0
"BUSMVMAI887", 12.505, 3,    7661.11,   88.9,    1.0611, 0, 0, 0, 0, 0, 0, 0, 0
"BUSMVMAI892", 12.505, 3,    7661.11,   88.9,    1.0611, 0, 0, 0, 0, 0, 0, 0, 0
"BUSMVMAI897", 12.505, 3,     7659.2,   88.9,    1.0608, 0, 0, 0, 0, 0, 0, 0, 0
"BUSMVMAI890", 12.505, 3,    7660.58,   88.9,     1.061, 0, 0, 0, 0, 0, 0, 0, 0
"BUSMVMAI891", 12.505, 3,    7660.49,   88.9,     1.061, 0, 0, 0, 0, 0, 0, 0, 0
"BUSMVMAI896", 12.505, 3,    7660.46,   88.9,     1.061, 0, 0, 0, 0, 0, 0, 0, 0
"BUSMVMAI893", 12.505, 3,     7661.1,   88.9,    1.0611, 0, 0, 0, 0, 0, 0, 0, 0
"BUSMVMAI894", 12.505, 3,     7661.1,   88.9,    1.0611, 0, 0, 0, 0, 0, 0, 0, 0
"BUSMVMAI895", 12.505, 3,     7661.1,   88.9,    1.0611, 0, 0, 0, 0, 0, 0, 0, 0
"BUSMVMAI898", 12.505, 3,    7661.09,   88.9,    1.0611, 0, 0, 0, 0, 0, 0, 0, 0
"BUSMVMAI70", 12.505, 1,    7756.83,  -30.7,    1.0744, 2,    7741.41, -149.8,    1.0722, 3,    7658.05,   88.9,    1.0607
"BUSMVMAI69", 12.505, 1,    7756.83,  -30.7,    1.0744, 2,    7741.41, -149.8,    1.0722, 3,    7658.04,   88.9,    1.0607
"BUSMVMAI708", 12.505, 1,    7756.83,  -30.7,    1.0744, 2,    7741.41, -149.8,    1.0722, 3,    7658.06,   88.9,    1.0607
"BUSMVMAI72", 12.505, 1,    7753.62,  -30.7,    1.0739, 2,    7741.47, -149.8,    1.0722, 3,    7656.87,   88.9,    1.0605
"BUSMVMAI73", 12.505, 1,     7752.4,  -30.7,    1.0737, 2,    7741.52, -149.8,    1.0722, 3,    7656.52,   88.9,    1.0605
"BUSMVMAI134", 12.505, 1,    7753.62,  -30.7,    1.0739, 2,    7741.47, -149.8,    1.0722, 3,    7656.87,   88.9,    1.0605
"BUSMVMAI900", 12.505, 3,    7659.14,   88.9,    1.0608, 0, 0, 0, 0, 0, 0, 0, 0
"BUSMVMAI904", 12.505, 3,    7661.09,   88.9,    1.0611, 0, 0, 0, 0, 0, 0, 0, 0
"BUSMVMAI75", 12.505, 1,     7751.8,  -30.7,    1.0737, 2,    7741.56, -149.8,    1.0722, 3,    7656.32,   88.9,    1.0604
"BUSMVMAI718", 12.505, 1,     7752.4,  -30.7,    1.0737, 2,    7741.52, -149.8,    1.0722, 3,    7656.53,   88.9,    1.0605
"BUSMVMAI899", 12.505, 3,    7659.14,   88.9,    1.0608, 0, 0, 0, 0, 0, 0, 0, 0
"BUSMVMAI902", 12.505, 3,    7659.11,   88.9,    1.0608, 0, 0, 0, 0, 0, 0, 0, 0
"BUSMVMAI901", 12.505, 3,    7659.09,   88.9,    1.0608, 0, 0, 0, 0, 0, 0, 0, 0
"BUSMVMAI903", 12.505, 3,    7659.04,   88.9,    1.0608, 0, 0, 0, 0, 0, 0, 0, 0
"BUSMVMAI905", 12.505, 3,       7659,   88.9,    1.0608, 0, 0, 0, 0, 0, 0, 0, 0
"BUSMVMAI907", 12.505, 3,    7659.04,   88.9,    1.0608, 0, 0, 0, 0, 0, 0, 0, 0
"BUSMVMAI906", 12.505, 3,    7658.99,   88.9,    1.0608, 0, 0, 0, 0, 0, 0, 0, 0
"BUSMVMAI946", 12.505, 3,    7658.99,   88.9,    1.0608, 0, 0, 0, 0, 0, 0, 0, 0
"BUSMVMAI74", 12.505, 1,     7751.8,  -30.7,    1.0737, 2,    7741.56, -149.8,    1.0722, 3,    7656.32,   88.9,    1.0604
"BUSMVMAI76", 12.505, 1,    7751.69,  -30.7,    1.0736, 2,    7741.64, -149.8,    1.0722, 3,    7656.27,   88.9,    1.0604
"BUSMVMAI77", 12.505, 1,    7751.47,  -30.7,    1.0736, 2,    7741.54, -149.8,    1.0722, 3,    7656.22,   88.9,    1.0604
"BUSMVMAI79", 12.505, 1,    7751.68,  -30.7,    1.0736, 2,    7741.65, -149.8,    1.0723, 3,    7656.26,   88.9,    1.0604
"BUSMVMAI81", 12.505, 1,    7751.45,  -30.7,    1.0736, 2,    7741.44, -149.8,    1.0722, 3,    7656.26,   88.9,    1.0604
"BUSMVMAI91", 12.505, 1,    7750.61,  -30.7,    1.0735, 2,    7741.56, -149.9,    1.0722, 3,    7655.93,   88.9,    1.0604
"BUSMVMAI78", 12.505, 1,    7751.48,  -30.7,    1.0736, 2,    7741.78, -149.8,    1.0723, 3,    7656.16,   88.9,    1.0604
"BUSMVMAI80", 12.505, 1,    7751.28,  -30.7,    1.0736, 2,    7741.91, -149.8,    1.0723, 3,    7656.05,   88.9,    1.0604
"BUSMVMAI908", 12.505, 1,    7751.15,  -30.7,    1.0736, 0, 0, 0, 0, 0, 0, 0, 0
"BUSMVMAI89", 12.505, 1,    7751.23,  -30.7,    1.0736, 2,    7741.94, -149.8,    1.0723, 3,       7656,   88.9,    1.0604
"BUSMVMAI949", 12.505, 3,    7659.04,   88.9,    1.0608, 0, 0, 0, 0, 0, 0, 0, 0
"BUSMVMAI82", 12.505, 1,    7751.44,  -30.7,    1.0736, 2,    7741.37, -149.8,    1.0722, 3,    7656.28,   88.9,    1.0604
"BUSMVMAI83", 12.505, 1,    7751.46,  -30.7,    1.0736, 2,    7741.37, -149.8,    1.0722, 3,    7656.25,   88.9,    1.0604
"BUSMVMAI86", 12.505, 1,    7751.48,  -30.7,    1.0736, 2,    7741.38, -149.8,    1.0722, 3,    7656.22,   88.9,    1.0604
"BUSMVMAI85", 12.505, 1,     7752.4,  -30.7,    1.0737, 2,    7741.46, -149.8,    1.0722, 3,    7656.57,   88.9,    1.0605
"BUSMVMAI84", 12.505, 1,    7752.35,  -30.7,    1.0737, 2,    7741.42, -149.8,    1.0722, 3,    7656.62,   88.9,    1.0605
"BUSMVMAI93", 12.505, 1,    7752.32,  -30.7,    1.0737, 2,     7741.4, -149.8,    1.0722, 3,    7656.64,   88.9,    1.0605
"BUSMVMAI2198", 12.505, 2,    7741.42, -149.8,    1.0722, 0, 0, 0, 0, 0, 0, 0, 0
"BUSMVMAI709", 12.505, 1,     7752.4,  -30.7,    1.0737, 2,    7741.51, -149.8,    1.0722, 3,    7656.53,   88.9,    1.0605
"BUSMVMAI88", 12.505, 1,     7751.5,  -30.7,    1.0736, 2,    7741.38, -149.8,    1.0722, 3,    7656.19,   88.9,    1.0604
"BUSMVMAI87", 12.505, 1,    7751.52,  -30.7,    1.0736, 2,    7741.39, -149.8,    1.0722, 3,    7656.16,   88.9,    1.0604
"BUSMVMAI99", 12.505, 1,    7751.53,  -30.7,    1.0736, 2,     7741.4, -149.8,    1.0722, 3,    7656.15,   88.9,    1.0604
"BUSMVMAI722", 12.505, 1,    7751.52,  -30.7,    1.0736, 2,    7741.39, -149.8,    1.0722, 3,    7656.15,   88.9,    1.0604
"BUSMVMAI909", 12.505, 1,    7751.03,  -30.7,    1.0736, 0, 0, 0, 0, 0, 0, 0, 0
"BUSMVMAI90", 12.505, 1,    7751.25,  -30.7,    1.0736, 2,    7741.93, -149.8,    1.0723, 3,    7655.96,   88.9,    1.0604
"BUSMVMAI102", 12.505, 1,    7751.26,  -30.7,    1.0736, 2,    7741.92, -149.8,    1.0723, 3,    7655.92,   88.9,    1.0604
"BUSMVMAI92", 12.505, 1,    7749.86,  -30.7,    1.0734, 2,    7741.59, -149.9,    1.0722, 3,    7655.67,   88.9,    1.0603
"BUSMVMAI132", 12.505, 1,    7750.61,  -30.7,    1.0735, 2,    7741.56, -149.9,    1.0722, 3,    7655.93,   88.9,    1.0604
"BUSMVMAI98", 12.505, 1,    7749.86,  -30.7,    1.0734, 2,    7741.59, -149.9,    1.0722, 3,    7655.67,   88.9,    1.0603
"BUSMVMAI100", 12.505, 1,    7748.92,  -30.7,    1.0733, 2,    7741.71, -149.9,    1.0723, 3,    7655.31,   88.9,    1.0603
"BUSMVMAI723", 12.505, 1,    7749.86,  -30.7,    1.0734, 2,    7741.58, -149.9,    1.0722, 3,    7655.67,   88.9,    1.0603
"BUSMVMAI96", 12.505, 1,     7752.3,  -30.7,    1.0737, 2,    7741.38, -149.8,    1.0722, 3,    7656.67,   88.9,    1.0605
"BUSMVMAI916", 12.505, 1,    7752.32,  -30.7,    1.0737, 0, 0, 0, 0, 0, 0, 0, 0
"BUSMVMAI95", 12.505, 1,    7749.87,  -30.7,    1.0734, 2,    7741.52, -149.9,    1.0722, 3,    7655.68,   88.9,    1.0603
"BUSMVMAI94", 12.505, 1,    7749.84,  -30.7,    1.0734, 2,    7741.45, -149.9,    1.0722, 3,    7655.71,   88.9,    1.0603
"BUSMVMAI112", 12.505, 1,    7749.84,  -30.7,    1.0734, 2,    7741.45, -149.9,    1.0722, 3,     7655.7,   88.9,    1.0603
"BUSMVMAI126", 12.505, 1,    7749.87,  -30.7,    1.0734, 2,    7741.52, -149.9,    1.0722, 3,    7655.68,   88.9,    1.0603
"BUSMVMAI97", 12.505, 1,    7752.26,  -30.7,    1.0737, 2,    7741.35, -149.8,    1.0722, 3,    7656.71,   88.9,    1.0605
"BUSMVMAI711", 12.505, 1,     7752.3,  -30.7,    1.0737, 2,    7741.38, -149.8,    1.0722, 3,    7656.67,   88.9,    1.0605
"BUSMVMAI915", 12.505, 1,    7752.26,  -30.7,    1.0737, 0, 0, 0, 0, 0, 0, 0, 0
...
"BUSLVMAI1", 0.20785, 1,    127.354,   88.9,    1.0613, 2,    127.369,  -91.1,    1.0614, 0, 0, 0, 0
"BUSLVMAI2", 0.20785, 1,    127.743,   89.2,    1.0645, 2,    127.756,  -90.8,    1.0646, 0, 0, 0, 0
"BUSLVMAI3", 0.20785, 1,    127.327,   88.9,    1.0611, 2,    127.343,  -91.1,    1.0612, 0, 0, 0, 0
"BUSLVMAI4", 0.20785, 1,    128.667,  -30.9,    1.0722, 2,    128.765,  149.1,     1.073, 0, 0, 0, 0
"BUSLVMAI5", 0.20785, 1,    128.165, -149.8,     1.068, 2,     128.21,   30.2,    1.0684, 0, 0, 0, 0
"BUSLVMAI6", 0.20785, 1,    127.134,   88.8,    1.0594, 2,    127.149,  -91.2,    1.0596, 0, 0, 0, 0
"BUSLVMAI7", 0.20785, 1,    127.358,   88.9,    1.0613, 2,    127.372,  -91.1,    1.0614, 0, 0, 0, 0
"BUSLVMAI8", 0.20785, 1,    126.735,   88.7,    1.0561, 2,    126.758,  -91.3,    1.0563, 0, 0, 0, 0
"BUSLVMAI9", 0.20785, 1,    126.555,   88.5,    1.0546, 2,    126.568,  -91.5,    1.0547, 0, 0, 0, 0
"BUSLVMAI10", 0.20785, 1,     126.66,   88.6,    1.0555, 2,    126.673,  -91.4,    1.0556, 0, 0, 0, 0
"BUSLVMAI11", 0.20785, 1,    128.572, -149.8,    1.0714, 2,    128.585,   30.2,    1.0715, 0, 0, 0, 0
"BUSLVMAI12", 0.20785, 1,     128.49, -149.9,    1.0707, 2,    128.505,   30.1,    1.0709, 0, 0, 0, 0
"BUSLVMAI13", 0.20785, 1,    129.029,  -30.6,    1.0752, 2,    129.044,  149.4,    1.0754, 0, 0, 0, 0
"BUSLVMAI14", 0.20785, 1,    129.223,  -30.7,    1.0769, 2,    129.239,  149.3,     1.077, 0, 0, 0, 0
"BUSLVMAI15", 0.20785, 1,    129.161,  -30.6,    1.0763, 2,    129.175,  149.4,    1.0765, 0, 0, 0, 0
"BUSLVMAI16", 0.20785, 1,    127.331,   88.9,    1.0611, 2,    127.349,  -91.1,    1.0612, 0, 0, 0, 0
"BUSLVMAI17", 0.20785, 1,    125.655,   88.3,    1.0471, 2,    125.688,  -91.7,    1.0474, 0, 0, 0, 0
"BUSLVMAI18", 0.20785, 1,    127.216,   88.9,    1.0601, 2,    127.232,  -91.1,    1.0603, 0, 0, 0, 0
"BUSLVMAI19", 0.20785, 1,    127.541,   89.1,    1.0628, 2,    127.555,  -90.9,     1.063, 0, 0, 0, 0
"BUSLVMAI20", 0.20785, 1,     127.98, -149.9,    1.0665, 2,    128.029,   30.1,    1.0669, 0, 0, 0, 0
"BUSLVMAI21", 0.20785, 1,    127.354,   88.9,    1.0613, 2,     127.37,  -91.1,    1.0614, 0, 0, 0, 0
"BUSLVMAI22", 0.20785, 1,    128.826,  -30.8,    1.0736, 2,    128.923,  149.2,    1.0744, 0, 0, 0, 0
"BUSLVMAI23", 0.20785, 1,    127.255,   88.9,    1.0605, 2,     127.27,  -91.1,    1.0606, 0, 0, 0, 0
"BUSLVMAI24", 0.20785, 1,    127.321,   88.9,     1.061, 2,    127.336,  -91.1,    1.0611, 0, 0, 0, 0
"BUSLVMAI25", 0.20785, 1,    127.165,   88.8,    1.0597, 2,    127.181,  -91.2,    1.0598, 0, 0, 0, 0
"BUSLVMAI26", 0.20785, 1,    128.456, -149.9,    1.0705, 2,    128.471,   30.1,    1.0706, 0, 0, 0, 0
"BUSLVMAI27", 0.20785, 1,     128.59, -149.8,    1.0716, 2,    128.606,   30.2,    1.0717, 0, 0, 0, 0
"BUSLVMAI28", 0.20785, 1,    127.216,   88.9,    1.0601, 2,    127.232,  -91.1,    1.0603, 0, 0, 0, 0
"BUSLVMAI29", 0.20785, 1,    126.584,   88.5,    1.0549, 2,    126.599,  -91.5,     1.055, 0, 0, 0, 0
"BUSLVMAI30", 0.20785, 1,    128.495, -149.7,    1.0708, 2,    128.509,   30.3,    1.0709, 0, 0, 0, 0
"BUSLVMAI31", 0.20785, 1,    127.329,   88.9,    1.0611, 2,    127.345,  -91.1,    1.0612, 0, 0, 0, 0
"BUSLVMAI32", 0.20785, 1,    128.834,  -30.7,    1.0736, 2,    128.848,  149.3,    1.0737, 0, 0, 0, 0
"BUSLVMAI33", 0.20785, 1,    127.172,   88.8,    1.0598, 2,    127.185,  -91.2,    1.0599, 0, 0, 0, 0
"BUSLVMAI34", 0.20785, 1,    125.212,   88.4,    1.0434, 2,    125.396,  -91.6,     1.045, 0, 0, 0, 0
"BUSLVMAI35", 0.20785, 1,    127.266,   88.9,    1.0605, 2,     127.28,  -91.1,    1.0607, 0, 0, 0, 0
"BUSLVMAI36", 0.20785, 1,    127.264,   88.9,    1.0605, 2,    127.278,  -91.1,    1.0607, 0, 0, 0, 0
"BUSLVMAI37", 0.20785, 1,    127.242,   88.9,    1.0603, 2,    127.257,  -91.1,    1.0605, 0, 0, 0, 0
"BUSLVMAI38", 0.20785, 1,    125.399, -150.5,     1.045, 2,    125.417,   29.5,    1.0451, 0, 0, 0, 0
"BUSLVMAI39", 0.20785, 1,    128.611, -149.8,    1.0718, 2,    128.624,   30.2,    1.0719, 0, 0, 0, 0
"BUSLVMAI40", 0.20785, 1,    126.818,   88.7,    1.0568, 2,    126.864,  -91.3,    1.0572, 0, 0, 0, 0
"BUSLVMAI41", 0.20785, 1,    128.794,  -30.7,    1.0733, 2,    128.809,  149.3,    1.0734, 0, 0, 0, 0
"BUSLVMAI42", 0.20785, 1,    128.781,  -30.7,    1.0732, 2,    128.796,  149.3,    1.0733, 0, 0, 0, 0
"BUSLVMAI43", 0.20785, 1,     128.79,  -30.7,    1.0732, 2,    128.805,  149.3,    1.0734, 0, 0, 0, 0
"BUSLVMAI44", 0.20785, 1,    127.096,   88.9,    1.0591, 2,    127.127,  -91.1,    1.0594, 0, 0, 0, 0
"BUSLVMAI45", 0.20785, 1,    127.043,   88.9,    1.0587, 2,    127.057,  -91.2,    1.0588, 0, 0, 0, 0
"BUSLVMAI46", 0.20785, 1,    127.218,   88.9,    1.0602, 2,    127.234,  -91.1,    1.0603, 0, 0, 0, 0
"BUSLVMAI47", 0.20785, 1,    127.269,   88.9,    1.0606, 2,    127.283,  -91.1,    1.0607, 0, 0, 0, 0
"BUSLVMAI48", 0.20785, 1,    126.626,   88.7,    1.0552, 2,    126.669,  -91.3,    1.0556, 0, 0, 0, 0
"BUSLVMAI49", 0.20785, 1,    128.808,  -30.7,    1.0734, 2,    128.823,  149.3,    1.0735, 0, 0, 0, 0
"BUSLVMAI50", 0.20785, 1,    126.558, -150.5,    1.0547, 2,    126.706,   29.6,    1.0559, 0, 0, 0, 0
"BUSLVMAI51", 0.20785, 1,    127.925,  -31.0,     1.066, 2,    127.941,  149.0,    1.0662, 0, 0, 0, 0
"BUSLVMAI52", 0.20785, 1,    127.276,   88.9,    1.0606, 2,    127.289,  -91.1,    1.0607, 0, 0, 0, 0
"BUSLVMAI53", 0.20785, 1,    127.259,   88.9,    1.0605, 2,    127.275,  -91.1,    1.0606, 0, 0, 0, 0
"BUSLVMAI54", 0.20785, 1,    126.711,   88.7,    1.0559, 2,    126.727,  -91.3,    1.0561, 0, 0, 0, 0
"BUSLVMAI55", 0.20785, 1,     128.84,  -30.7,    1.0737, 2,    128.855,  149.3,    1.0738, 0, 0, 0, 0
"BUSLVMAI56", 0.20785, 1,    127.364,   89.1,    1.0614, 2,    127.377,  -90.9,    1.0615, 0, 0, 0, 0
"BUSLVMAI57", 0.20785, 1,    127.202,   88.9,      1.06, 2,    127.217,  -91.1,    1.0601, 0, 0, 0, 0
"BUSLVMAI58", 0.20785, 1,    127.275,   88.9,    1.0606, 2,    127.289,  -91.1,    1.0607, 0, 0, 0, 0
"BUSLVMAI59", 0.20785, 1,    128.808,  -30.7,    1.0734, 2,    128.823,  149.3,    1.0735, 0, 0, 0, 0
"BUSLVMAI60", 0.20785, 1,    128.688,  -30.8,    1.0724, 2,    128.701,  149.2,    1.0725, 0, 0, 0, 0
"BUSLVMAI61", 0.20785, 1,    127.442,  -31.3,     1.062, 2,    127.462,  148.7,    1.0622, 0, 0, 0, 0
"BUSLVMAI62", 0.20785, 1,    128.386, -150.0,    1.0699, 2,      128.4,   30.0,      1.07, 0, 0, 0, 0
"BUSLVMAI63", 0.20785, 1,    128.557,  -30.7,    1.0713, 2,     128.58,  149.3,    1.0715, 0, 0, 0, 0
"BUSLVMAI64", 0.20785, 1,    128.514, -149.9,     1.071, 2,    128.527,   30.1,    1.0711, 0, 0, 0, 0
"BUSLVMAI65", 0.20785, 1,    128.791,  -30.7,    1.0733, 2,    128.805,  149.3,    1.0734, 0, 0, 0, 0
"BUSLVMAI66", 0.20785, 1,    127.265,   88.9,    1.0605, 2,    127.279,  -91.1,    1.0607, 0, 0, 0, 0
"BUSLVMAI67", 0.20785, 1,    128.232,  -30.9,    1.0686, 2,    128.249,  149.1,    1.0687, 0, 0, 0, 0
"BUSLVMAI68", 0.20785, 1,    128.245,  -31.0,    1.0687, 2,    128.258,  149.0,    1.0688, 0, 0, 0, 0
"BUSLVMAI69", 0.20785, 1,    127.268,   88.9,    1.0606, 2,    127.281,  -91.1,    1.0607, 0, 0, 0, 0
"BUSLVMAI70", 0.20785, 1,    126.884,   88.7,    1.0574, 2,    126.909,  -91.3,    1.0576, 0, 0, 0, 0
"BUSLVMAI71", 0.20785, 1,    128.701,  -30.7,    1.0725, 2,    128.716,  149.3,    1.0726, 0, 0, 0, 0
"BUSLVMAI72", 0.20785, 1,    128.733,  -30.7,    1.0728, 2,    128.746,  149.3,    1.0729, 0, 0, 0, 0
"BUSLVMAI73", 0.20785, 1,    128.808,  -30.7,    1.0734, 2,    128.821,  149.3,    1.0735, 0, 0, 0, 0
"BUSLVMAI74", 0.20785, 1,    128.807,  -30.7,    1.0734, 2,    128.822,  149.3,    1.0735, 0, 0, 0, 0
"BUSLVMAI75", 0.20785, 1,    128.564, -149.8,    1.0714, 2,    128.579,   30.2,    1.0715, 0, 0, 0, 0
"BUSLVMAI76", 0.20785, 1,    127.265,   88.9,    1.0605, 2,    127.278,  -91.1,    1.0606, 0, 0, 0, 0
"BUSLVMAI77", 0.20785, 1,    128.062,  -31.0,    1.0672, 2,    128.076,  149.0,    1.0673, 0, 0, 0, 0
"BUSLVMAI78", 0.20785, 1,    128.867,  -30.7,    1.0739, 2,    128.881,  149.3,     1.074, 0, 0, 0, 0
"BUSLVMAI79", 0.20785, 1,    127.208,   88.9,    1.0601, 2,    127.222,  -91.1,    1.0602, 0, 0, 0, 0
"BUSLVMAI80", 0.20785, 1,     126.02,   88.4,    1.0502, 2,    126.041,  -91.6,    1.0503, 0, 0, 0, 0
"BUSLVMAI81", 0.20785, 1,    127.264,   88.9,    1.0605, 2,    127.278,  -91.1,    1.0607, 0, 0, 0, 0
"BUSLVMAI82", 0.20785, 1,    127.358,   89.0,    1.0613, 2,    127.374,  -91.0,    1.0615, 0, 0, 0, 0
"BUSLVMAI83", 0.20785, 1,     128.47,  -30.8,    1.0706, 2,    128.485,  149.2,    1.0707, 0, 0, 0, 0
"BUSLVMAI84", 0.20785, 1,    127.336,   89.1,    1.0611, 2,     127.35,  -90.9,    1.0612, 0, 0, 0, 0
"BUSLVMAI85", 0.20785, 1,    128.733, -149.8,    1.0728, 2,     128.76,   30.2,     1.073, 0, 0, 0, 0
"BUSLVMAI86", 0.20785, 1,     128.66,  -30.7,    1.0722, 2,    128.689,  149.3,    1.0724, 0, 0, 0, 0
"BUSLVMAI87", 0.20785, 1,    129.072,  -30.5,    1.0756, 2,    129.108,  149.5,    1.0759, 0, 0, 0, 0
"BUSLVMAI88", 0.20785, 1,      127.3,   88.9,    1.0608, 2,    127.313,  -91.1,    1.0609, 0, 0, 0, 0
"BUSLVMAI89", 0.20785, 1,    127.265,   88.9,    1.0605, 2,    127.278,  -91.1,    1.0606, 0, 0, 0, 0
"BUSLVMAI90", 0.20785, 1,    126.746,   88.8,    1.0562, 2,    126.762,  -91.2,    1.0564, 0, 0, 0, 0
"BUSLVMAI91", 0.20785, 1,    127.267,   88.9,    1.0606, 2,    127.283,  -91.1,    1.0607, 0, 0, 0, 0
"BUSLVMAI92", 0.20785, 1,    128.363,  -30.9,    1.0697, 2,    128.412,  149.1,    1.0701, 0, 0, 0, 0
"BUSLVMAI93", 0.20785, 1,    127.178,   89.0,    1.0598, 2,    127.194,  -91.0,      1.06, 0, 0, 0, 0
"BUSLVMAI94", 0.20785, 1,      127.4,   89.0,    1.0617, 2,    127.414,  -91.0,    1.0618, 0, 0, 0, 0
"BUSLVMAI95", 0.20785, 1,    127.202,   88.9,      1.06, 2,    127.217,  -91.1,    1.0601, 0, 0, 0, 0
"BUSLVMAI96", 0.20785, 1,    127.235,   88.9,    1.0603, 2,    127.249,  -91.1,    1.0604, 0, 0, 0, 0
"BUSLVMAI97", 0.20785, 1,    128.626, -149.8,    1.0719, 2,    128.642,   30.2,     1.072, 0, 0, 0, 0
"BUSLVMAI98", 0.20785, 1,    128.626, -149.8,    1.0719, 2,    128.642,   30.2,     1.072, 0, 0, 0, 0
"BUSLVMAI99", 0.20785, 1,    127.245,   88.9,    1.0604, 2,    127.259,  -91.1,    1.0605, 0, 0, 0, 0
"BUSLVMAI100", 0.20785, 1,     127.34,   89.0,    1.0612, 2,    127.355,  -91.0,    1.0613, 0, 0, 0, 0
"BUSLVMAI101", 0.20785, 1,    127.199,   88.9,      1.06, 2,    127.215,  -91.1,    1.0601, 0, 0, 0, 0
"BUSLVMAI102", 0.20785, 1,    127.262,   88.9,    1.0605, 2,    127.278,  -91.1,    1.0606, 0, 0, 0, 0
"BUSLVMAI103", 0.20785, 1,    127.161,   88.9,    1.0597, 2,    127.176,  -91.1,    1.0598, 0, 0, 0, 0
"BUSLVMAI104", 0.20785, 1,    127.072,   88.9,    1.0589, 2,    127.086,  -91.1,    1.0591, 0, 0, 0, 0
"BUSLVMAI105", 0.20785, 1,    126.953,   88.8,    1.0579, 2,    126.967,  -91.2,    1.0581, 0, 0, 0, 0
"BUSLVMAI106", 0.20785, 1,    128.774,  -30.7,    1.0731, 2,    128.788,  149.3,    1.0732, 0, 0, 0, 0
"BUSLVMAI107", 0.20785, 1,    127.269,   88.9,    1.0606, 2,    127.283,  -91.1,    1.0607, 0, 0, 0, 0
"BUSLVMAI108", 0.20785, 1,     127.21,   88.9,    1.0601, 2,    127.225,  -91.1,    1.0602, 0, 0, 0, 0
"BUSLVMAI109", 0.20785, 1,    128.444,  -30.8,    1.0704, 2,    128.508,  149.2,    1.0709, 0, 0, 0, 0
"BUSLVMAI110", 0.20785, 1,    128.505,  -30.8,    1.0709, 2,    128.554,  149.2,    1.0713, 0, 0, 0, 0
"BUSLVMAI111", 0.20785, 1,    128.578,  -30.8,    1.0715, 2,    128.594,  149.2,    1.0716, 0, 0, 0, 0
"BUSLVMAI112", 0.20785, 1,    128.698,  -30.7,    1.0725, 2,    128.714,  149.3,    1.0726, 0, 0, 0, 0
"BUSLVMAI113", 0.20785, 1,    128.629, -149.8,    1.0719, 2,    128.645,   30.2,     1.072, 0, 0, 0, 0
"BUSLVMAI114", 0.20785, 1,    127.364,  -31.0,    1.0614, 2,    127.379,  149.0,    1.0615, 0, 0, 0, 0
"BUSLVMAI115", 0.20785, 1,    128.578,  -30.8,    1.0715, 2,    128.591,  149.2,    1.0716, 0, 0, 0, 0
"BUSLVMAI116", 0.20785, 1,    127.176,   89.0,    1.0598, 2,    127.189,  -91.0,    1.0599, 0, 0, 0, 0
"BUSLVMAI117", 0.20785, 1,    128.444,  -30.8,    1.0704, 2,    128.465,  149.2,    1.0705, 0, 0, 0, 0
"BUSLVMAI118", 0.20785, 1,    128.927,  -30.6,    1.0744, 2,    128.943,  149.4,    1.0745, 0, 0, 0, 0
"BUSLVMAI119", 0.20785, 1,    126.906,   88.8,    1.0575, 2,    126.919,  -91.2,    1.0577, 0, 0, 0, 0
"BUSLVMAI120", 0.20785, 1,    128.577,  -30.8,    1.0715, 2,    128.591,  149.2,    1.0716, 0, 0, 0, 0
"BUSLVMAI121", 0.20785, 1,    128.651, -149.9,    1.0721, 2,    128.667,   30.1,    1.0722, 0, 0, 0, 0
"BUSLVMAI122", 0.20785, 1,    127.163,   89.0,    1.0597, 2,    127.179,  -91.0,    1.0598, 0, 0, 0, 0
"BUSLVMAI123", 0.20785, 1,    128.643, -149.9,     1.072, 2,    128.657,   30.1,    1.0721, 0, 0, 0, 0
"BUSLVMAI124", 0.20785, 1,    126.828,   88.8,    1.0569, 2,    126.876,  -91.2,    1.0573, 0, 0, 0, 0
"BUSLVMAI125", 0.20785, 1,    126.396,   88.7,    1.0533, 2,    126.413,  -91.3,    1.0534, 0, 0, 0, 0
"BUSLVMAI126", 0.20785, 1,    128.651, -149.9,    1.0721, 2,    128.666,   30.1,    1.0722, 0, 0, 0, 0
"BUSLVMAI127", 0.20785, 1,    127.168,   89.0,    1.0597, 2,    127.182,  -91.0,    1.0598, 0, 0, 0, 0
"BUSLVMAI128", 0.20785, 1,     128.92, -149.6,    1.0743, 2,    128.935,   30.4,    1.0745, 0, 0, 0, 0
"BUSLVMAI129", 0.20785, 1,    128.577,  -30.8,    1.0715, 2,     128.59,  149.2,    1.0716, 0, 0, 0, 0
"BUSLVMAI130", 0.20785, 1,    128.731,  -30.7,    1.0728, 2,    128.747,  149.3,    1.0729, 0, 0, 0, 0
"BUSLVMAI131", 0.20785, 1,    127.248,  -31.2,    1.0604, 2,    127.349,  148.8,    1.0612, 0, 0, 0, 0
"BUSLVMAI132", 0.20785, 1,    128.574,  -30.8,    1.0714, 2,    128.587,  149.2,    1.0716, 0, 0, 0, 0
"BUSLVMAI133", 0.20785, 1,    127.182,   89.0,    1.0598, 2,      127.2,  -91.1,      1.06, 0, 0, 0, 0
"BUSLVMAI134", 0.20785, 1,    126.875,   88.8,    1.0573, 2,    126.891,  -91.2,    1.0574, 0, 0, 0, 0
"BUSLVMAI135", 0.20785, 1,    127.102,   88.9,    1.0592, 2,    127.118,  -91.1,    1.0593, 0, 0, 0, 0
"BUSLVMAI136", 0.20785, 1,    128.351,  -30.9,    1.0696, 2,    128.376,  149.1,    1.0698, 0, 0, 0, 0
"BUSLVMAI137", 0.20785, 1,     128.78, -149.7,    1.0732, 2,    128.794,   30.3,    1.0733, 0, 0, 0, 0
"BUSLVMAI138", 0.20785, 1,    128.418, -149.9,    1.0702, 2,    128.441,   30.1,    1.0703, 0, 0, 0, 0
"BUSLVMAI139", 0.20785, 1,    127.806, -150.2,     1.065, 2,    127.825,   29.8,    1.0652, 0, 0, 0, 0
"BUSLVMAI140", 0.20785, 1,    128.427,  -30.8,    1.0702, 2,    128.443,  149.2,    1.0704, 0, 0, 0, 0
"BUSLVMAI141", 0.20785, 1,    128.652, -149.9,    1.0721, 2,    128.666,   30.1,    1.0722, 0, 0, 0, 0
"BUSLVMAI142", 0.20785, 1,    128.293, -150.0,    1.0691, 2,    128.307,   30.0,    1.0692, 0, 0, 0, 0
"BUSLVMAI143", 0.20785, 1,    128.539, -149.9,    1.0712, 2,    128.555,   30.1,    1.0713, 0, 0, 0, 0
"BUSLVMAI144", 0.20785, 1,    127.165,   89.0,    1.0597, 2,    127.181,  -91.0,    1.0598, 0, 0, 0, 0
"BUSLVMAI145", 0.20785, 1,    128.645,  -30.8,     1.072, 2,     128.66,  149.2,    1.0722, 0, 0, 0, 0
"BUSLVMAI146", 0.20785, 1,    128.628, -149.9,    1.0719, 2,    128.642,   30.1,     1.072, 0, 0, 0, 0
"BUSLVMAI147", 0.20785, 1,    128.737,  -30.5,    1.0728, 2,    128.753,  149.5,    1.0729, 0, 0, 0, 0
"BUSLVMAI148", 0.20785, 1,    127.077,   88.9,     1.059, 2,    127.092,  -91.1,    1.0591, 0, 0, 0, 0
"BUSLVMAI149", 0.20785, 1,    128.598, -149.8,    1.0717, 2,    128.611,   30.2,    1.0718, 0, 0, 0, 0
"BUSLVMAI150", 0.20785, 1,    127.847,  -31.1,    1.0654, 2,    127.871,  148.9,    1.0656, 0, 0, 0, 0
"BUSLVMAI151", 0.20785, 1,    128.434, -149.7,    1.0703, 2,    128.448,   30.3,    1.0704, 0, 0, 0, 0
"BUSLVMAI152", 0.20785, 1,    128.566,  -30.8,    1.0714, 2,    128.581,  149.2,    1.0715, 0, 0, 0, 0
"BUSLVMAI153", 0.20785, 1,    126.306,   88.6,    1.0526, 2,    126.322,  -91.4,    1.0527, 0, 0, 0, 0
"BUSLVMAI154", 0.20785, 1,    127.175,   89.0,    1.0598, 2,    127.191,  -91.1,    1.0599, 0, 0, 0, 0
"BUSLVMAI155", 0.20785, 1,    128.509,  -30.8,    1.0709, 2,    128.523,  149.2,     1.071, 0, 0, 0, 0
"BUSLVMAI156", 0.20785, 1,    128.586,  -30.8,    1.0716, 2,    128.599,  149.2,    1.0717, 0, 0, 0, 0
"BUSLVMAI157", 0.20785, 1,    127.847,  -31.0,    1.0654, 2,    127.863,  149.0,    1.0655, 0, 0, 0, 0
"BUSLVMAI158", 0.20785, 1,    128.556, -149.9,    1.0713, 2,    128.569,   30.1,    1.0714, 0, 0, 0, 0
"BUSLVMAI159", 0.20785, 1,    128.635, -149.8,     1.072, 2,    128.648,   30.2,    1.0721, 0, 0, 0, 0
"BUSLVMAI160", 0.20785, 1,    128.611,  -30.6,    1.0718, 2,    128.631,  149.4,    1.0719, 0, 0, 0, 0
"BUSLVMAI161", 0.20785, 1,    128.441,  -30.8,    1.0703, 2,    128.468,  149.2,    1.0706, 0, 0, 0, 0
"BUSLVMAI162", 0.20785, 1,    128.368,  -30.8,    1.0697, 2,    128.384,  149.2,    1.0699, 0, 0, 0, 0
"BUSLVMAI163", 0.20785, 1,    128.566,  -30.8,    1.0714, 2,    128.581,  149.2,    1.0715, 0, 0, 0, 0
"BUSLVMAI164", 0.20785, 1,    128.753,  -30.7,    1.0729, 2,    128.767,  149.3,    1.0731, 0, 0, 0, 0
"BUSLVMAI165", 0.20785, 1,    127.773,  -31.0,    1.0648, 2,    127.826,  149.0,    1.0652, 0, 0, 0, 0
"BUSLVMAI166", 0.20785, 1,    128.316,  -30.9,    1.0693, 2,    128.346,  149.1,    1.0696, 0, 0, 0, 0
"BUSLVMAI167", 0.20785, 1,     127.26,   89.0,    1.0605, 2,    127.292,  -91.0,    1.0608, 0, 0, 0, 0
"BUSLVMAI168", 0.20785, 1,    127.198,   89.0,      1.06, 2,    127.212,  -91.0,    1.0601, 0, 0, 0, 0
"BUSLVMAI169", 0.20785, 1,    126.382,  -31.2,    1.0532, 2,    126.399,  148.8,    1.0533, 0, 0, 0, 0
"BUSLVMAI170", 0.20785, 1,    128.574,  -30.8,    1.0715, 2,    128.588,  149.2,    1.0716, 0, 0, 0, 0
"BUSLVMAI171", 0.20785, 1,    127.962,  -30.9,    1.0663, 2,    128.054,  149.1,    1.0671, 0, 0, 0, 0
"BUSLVMAI172", 0.20785, 1,    127.332,   89.1,    1.0611, 2,    127.346,  -90.9,    1.0612, 0, 0, 0, 0
"BUSLVMAI173", 0.20785, 1,    127.162,   89.0,    1.0597, 2,    127.178,  -91.0,    1.0598, 0, 0, 0, 0
"BUSLVMAI174", 0.20785, 1,    128.546,  -30.8,    1.0712, 2,    128.571,  149.2,    1.0714, 0, 0, 0, 0
"BUSLVMAI175", 0.20785, 1,    127.943,  -31.0,    1.0662, 2,    127.957,  149.0,    1.0663, 0, 0, 0, 0
"BUSLVMAI176", 0.20785, 1,     127.03,   88.9,    1.0586, 2,    127.043,  -91.1,    1.0587, 0, 0, 0, 0
"BUSLVMAI177", 0.20785, 1,    127.208,   89.0,    1.0601, 2,    127.221,  -91.0,    1.0602, 0, 0, 0, 0
"BUSLVMAI178", 0.20785, 1,    128.562, -149.9,    1.0714, 2,    128.576,   30.1,    1.0715, 0, 0, 0, 0
"BUSLVMAI179", 0.20785, 1,    128.433, -149.9,    1.0703, 2,    128.446,   30.0,    1.0704, 0, 0, 0, 0
"BUSLVMAI180", 0.20785, 1,    128.586,  -30.8,    1.0716, 2,    128.599,  149.2,    1.0717, 0, 0, 0, 0
"BUSLVMAI181", 0.20785, 1,    128.572,  -30.8,    1.0714, 2,    128.587,  149.2,    1.0716, 0, 0, 0, 0
"BUSLVMAI182", 0.20785, 1,     128.18,  -30.8,    1.0682, 2,    128.351,  149.2,    1.0696, 0, 0, 0, 0
"BUSLVMAI183", 0.20785, 1,     127.08,   88.9,     1.059, 2,    127.094,  -91.1,    1.0591, 0, 0, 0, 0
"BUSLVMAI184", 0.20785, 1,    128.731,  -30.7,    1.0728, 2,    128.745,  149.3,    1.0729, 0, 0, 0, 0
"BUSLVMAI185", 0.20785, 1,    128.294, -149.9,    1.0691, 2,    128.307,   30.1,    1.0692, 0, 0, 0, 0
"BUSLVMAI186", 0.20785, 1,    127.179,   88.9,    1.0598, 2,    127.194,  -91.1,      1.06, 0, 0, 0, 0
"BUSLVMAI187", 0.20785, 1,     127.22,   89.0,    1.0602, 2,    127.233,  -91.0,    1.0603, 0, 0, 0, 0
"BUSLVMAI188", 0.20785, 1,    128.628, -149.8,    1.0719, 2,    128.643,   30.2,     1.072, 0, 0, 0, 0
"BUSLVMAI189", 0.20785, 1,    128.581,  -30.8,    1.0715, 2,    128.597,  149.2,    1.0716, 0, 0, 0, 0
"BUSLVMAI190", 0.20785, 1,    128.629, -149.8,    1.0719, 2,    128.646,   30.2,     1.072, 0, 0, 0, 0
"BUSLVMAI191", 0.20785, 1,    127.175,   89.0,    1.0598, 2,    127.191,  -91.1,    1.0599, 0, 0, 0, 0
"BUSLVMAI192", 0.20785, 1,    128.565,  -30.8,    1.0714, 2,    128.581,  149.2,    1.0715, 0, 0, 0, 0
"BUSLVMAI193", 0.20785, 1,    128.575,  -30.8,    1.0715, 2,    128.592,  149.2,    1.0716, 0, 0, 0, 0
"BUSLVMAI194", 0.20785, 1,    127.062,   88.9,    1.0589, 2,    127.078,  -91.1,     1.059, 0, 0, 0, 0
"BUSLVMAI195", 0.20785, 1,    127.177,   89.0,    1.0598, 2,    127.193,  -91.1,    1.0599, 0, 0, 0, 0
"BUSLVMAI196", 0.20785, 1,    128.627, -149.8,    1.0719, 2,    128.643,   30.2,     1.072, 0, 0, 0, 0
"BUSLVMAI197", 0.20785, 1,    128.414, -149.9,    1.0701, 2,    128.428,   30.1,    1.0702, 0, 0, 0, 0
"BUSLVMAI198", 0.20785, 1,     128.63, -149.8,    1.0719, 2,    128.646,   30.2,     1.072, 0, 0, 0, 0
"BUSLVMAI199", 0.20785, 1,     128.63, -149.8,    1.0719, 2,    128.645,   30.2,     1.072, 0, 0, 0, 0
"BUSLVMAI200", 0.20785, 1,    128.566,  -30.8,    1.0714, 2,    128.581,  149.2,    1.0715, 0, 0, 0, 0
...
